╬■x
points(─ labelsizeparent"

NREL/SAM"

NREL/reV"

NREL/ssc"
	NREL/PIDG"
	NREL/PRAS"
	pnnl/tesp"

NREL/ROSCO"

NREL/SOWFA"

NREL/ditto"

NREL/flasc"

NREL/pysam"

NREL/sup3r"

veaba/ncov"
EIAgov/NEMS"
LHEEA/Nemoh"
NREL/MoorPy"
NREL/OpenOA"
NREL/WindSE"
NREL/floris"
PyPSA/PyPSA"
WISDEM/RAFT"
WISDEM/WEIS"
bdw/GridKit"
cdcepi/zika"
dpinney/omf"
itesla/ipsl"
itesla/ipst"
oemof/oemof"
openego/eGo"
rwl/PYPOWER"
CURENT/andes"
GAMS-dev/gdx"
NREL/SOWFA-6"
PyPSA/atlite"
PyPSA/linopy"
R4EPI/sitrep"
WEC-Sim/WDRT"
tum-ens/urbs"
ECheynet/SEIR"
GAMS-dev/miro"
NREL/OpenWARP"
NREL/REopt.jl"
NREL/SolTrace"
PyPSA/247-cfe"
WEC-Sim/bemio"
WISDEM/WISDEM"
WISDEM/pyHAMS"
covidatlas/li"
dynawo/dynawo"
mcanet/knitic"
openego/ding0"
pzivich/zEpid"
renmu123/ncov"
ttinoco/PFNET"
tum-ens/rivus"
CDCgov/PyRenew"
EIAgov/BlueSky"
JiaxiangBU/phv"
Moyck/2019NCOV"
NREL/REopt_API"
Rank23/COVID19"
SanPen/GridCal"
WattTime/pyiso"
YingyiLiu/HAMS"
aqreed/solarpy"
cmmid/covid-uk"
cmrivers/epipy"
coryjog/anemoi"
disease-sh/API"
dsheldon/covid"
ebranlard/weio"
euronion/trace"
govex/COVID-19"
hack-fang/nCov"
hustcc/warpart"
jarad/FluSight"
k-sys/covid-19"
mathLab/pi-BEM"
mrc-ide/squire"
openego/eDisGo"
openego/eTraGo"
p-j-r/covid-19"
pomber/covid19"
pzhaonet/ncovr"
reconhub/aweek"
tshort/OpenDSS"
ttinoco/OPTALG"
GAMS-dev/gamspy"
GAMS-dev/studio"
GMLC-TDC/HELICS"
NREL/SolarPILOT"
OSeMOSYS/otoole"
OpenFAST/r-test"
PyPSA/pypsa-eur"
PyPSA/pypsa-usa"
WEC-Sim/WEC-Sim"
changgang/steps"
cwBerkeley/code"
dsfsi/covid19za"
e2nIEE/pandahub"
e2nIEE/simbench"
ebranlard/welib"
g3rard/OpenKnit"
mathLab/WaveBEM"
oemof/demandlib"
oemof/feedinlib"
rCarto/spikemap"
reconhub/earlyR"
sangyx/nCoV-Map"
ttinoco/GRIDOPT"
tum-ens/pyGRETA"
yang7857854/F2A"
BEMRosetta/Nemoh"
Exawind/amr-wind"
GRIDAPPSD/CIMHub"
GridMod/RTS-GMLC"
LHEEA/meshmagick"
OpenUpSA/SA-Maps"
RyanCMann/OSESMO"
TemoaProject/oeo"
chrism0dwk/wuhan"
epri-dev/OpenDER"
gridlab-d/course"
lzxue/yiqingditu"
mrc-ide/EpiEstim"
reconhub/epitrix"
rexdouglass/TIGR"
soanagno/wakenet"
sokanno/KnitHack"
tverbrug/openWEC"
wuhan2020/WebApp"
yaotc/PVODataset"
yuhao-nie/SkyGPT"
EpiModel/EpiModel"
Exawind/nalu-wind"
FZJ-IEK3-VSA/FINE"
FZJ-IEK3-VSA/tsam"
MATPOWER/matpower"
OSeMOSYS/OSeMOSYS"
OpenFAST/openfast"
OpenIPSL/OpenIPSL"
RAMP-project/RAMP"
RubendeBruin/DAVE"
YunDuanFei/ACCNet"
calthaus/ncov-cfr"
cdgaete/pypsa-mcp"
chen-lin/openmoor"
choderalab/qmlify"
cigroup-ol/windml"
cuihuan/2019_nCov"
datasets/covid-19"
e2nIEE/pandapipes"
e2nIEE/pandapower"
houyunhuang/ggcor"
jcl5m1/ventilator"
lukastk/PyRossGeo"
mountainMath/cmhc"
mrc-ide/covid-sim"
oemof/oemof-solph"
pennsignals/chime"
pingswept/pysolar"
powsybl/pypowsybl"
reconhub/epiflows"
reconhub/linelist"
wuhan2020/map-viz"
AaronWard/covidify"
FZJ-IEK3-VSA/HiSim"
FZJ-IEK3-VSA/bslib"
FZJ-IEK3-VSA/glaes"
FZJ-IEK3-VSA/hplib"
IAMconsortium/pyam"
JayWelsh/coronamap"
NREL/ROSCO_toolbox"
OrstedRD/TurbOPark"
ProtofyTeam/OxyGEN"
TemoaProject/temoa"
chrispahm/gams-ide"
cmrivers/episkills"
epiforecasts/covid"
gitbooo/CrossViVit"
hack-fang/ncov-map"
jeslago/epftoolbox"
liviuschera/noctis"
open-covid-19/data"
ps-wiki/best-of-ps"
pvlib/pvlib-python"
reconhub/incidence"
silpara/simulators"
wuhan2020/rest-api"
AQadir64/HelloWorld"
CodeForPhilly/chime"
EnergieID/entsoe-py"
FZJ-IEK3-VSA/RESKit"
FZJ-IEK3-VSA/geokit"
GAMS-dev/TIMES_MIRO"
GenXProject/GenX.jl"
GridOPTICS/GridPACK"
KikiLetGo/DimReduce"
NREL/ParaEMT_public"
NREL/turbine-models"
PyPSA/pypsa-eur-sec"
border1px/2019-nCov"
capytaine/capytaine"
cosmicjs/react-blog"
disease-sh/node-api"
dsfsi/covid19africa"
ebranlard/pyDatView"
epiforecasts/EpiNow"
epri-dev/StorageVET"
gridlab-d/gridlab-d"
hrbrmstr/cdcfluview"
mountainMath/cansim"
msaaddev/Cross-Zoom"
ricnogfer/pypsatopo"
stevenliuyi/covid19"
switch-model/switch"
synthpops/synthpops"
wuhan2020/data-sync"
wuhan2020/wuhan2020"
CanadianSolar/CASSYS"
DTUWindEnergy/PyWake"
EpiModel/EpiModelHIV"
FlorianK13/skyimages"
FoldingAtHome/openmm"
FraunhoferIWES/foxes"
GeoDS/COVID19USFlows"
IEC-61400-15/eya_def"
JosiahParry/placekey"
Lewuathe/COVID19-SIR"
NomanGul/octocat-day"
OpenGridMap/transnet"
Placekey/placekey-js"
Placekey/placekey-py"
ahmadawais/Emoji-Log"
alsnhll/SEIR_COVID19"
andrewlyden/PyPSA-GB"
blue-marble/gridpath"
ccodwg/Covid19Canada"
cosmicjs/simple-blog"
eAzure/COVID-19-Data"
epiforecasts/EpiNow2"
hfchen20/foamMooring"
holmdk/IrradianceNet"
ihmeuw-msca/CurveFit"
m4rz910/NYISOToolkit"
mbheinen/bpa-ipf-tsp"
mountainMath/tongfen"
powsybl/powsybl-core"
reconhub/epicontacts"
reconhub/projections"
renewables-ninja/vwf"
ryansmcgee/seirsplus"
sandialabs/snl-quest"
shfshanyue/2019-ncov"
sleepyqadir/Covid-19"
sogno-platform/dpsim"
susantoj/PYPOWER-Gui"
textiles-lab/knitout"
wuhan2020/api-server"
ALSETLab/cim2modelica"
BEMRosetta/BEMRosetta"
COVIDAnalytics/DELPHI"
DTUWindEnergy/TOPFARM"
EIAgov/dash-benchmark"
KikiLetGo/UniverseSim"
PowerGrids/PowerGrids"
PyPSA/technology-data"
YunxiuXu/Virus-School"
adrian-lison/EpiSewer"
ahmadawais/corona-cli"
benflips/nCovForecast"
dai-pch/2019-nCoV-Fit"
e2nIEE/pandapower-gui"
epinowcast/epinowcast"
gridstatus/gridstatus"
iqrafatimame/COVID-19"
javieraviles/covidAPI"
jstockwin/EpiEstimApp"
lanl-ansi/rosetta-opf"
leiii/population_flow"
lisphilar/covid19-sir"
parksw3/COVID19-Korea"
renewables-ninja/gsee"
sleepyqadir/TechFolio"
textiles-lab/autoknit"
wikihouseproject/Wren"
BuzzFeedNews/zika-data"
COVID19Tracking/issues"
DTUWindEnergy/TopFarm2"
Gittingthehubbing/SIAT"
GuangchuangYu/nCov2019"
Kamaropoulos/COVID19Py"
PotentialWeb/CoronaTab"
VictimOfMaths/COVID-19"
adamgreenhall/minpower"
ahmadabdullah/BPA_EMTP"
ahmadawais/cli-welcome"
ahmadawais/ramadan-cli"
covid19datahub/COVID19"
derrickoswald/CIMSpace"
derrickoswald/CIMSpark"
kuiwuchn/stitchMeshing"
lanl-ansi/grg-pssedata"
leonardgoeke/AnyMOD.jl"
macroenergy/Dolphyn.jl"
makers-for-life/makair"
mathdroid/covid-19-api"
midas-network/COVID-19"
mountainMath/cancensus"
msaaddev/COVID-19-STAT"
msaaddev/csharp-runner"
rtcovidlive/covid-dash"
samchaaa/capstone_repo"
wuhan2020/COVID-19-Nav"
xiaoniumang/pandapower"
yijunwang0805/covid-19"
COVID19Tracking/website"
OSUKED/ElexonDataPortal"
OpenFAST/matlab-toolbox"
OpenFAST/python-toolbox"
OxCGRT/USA-covid-policy"
PowerGenome/PowerGenome"
RamiKrispin/coronavirus"
RespiraWorks/Ventilator"
SafeGraphInc/SafeGraphR"
WISPO-POP/PowerPlots.jl"
backtrackbaba/covid-api"
dkobak/excess-mortality"
dss-extensions/dss_capi"
e2nIEE/pandapower-paper"
emunsing/CAISO-Scrapers"
frivollier/pvsyst_tools"
gridstatus/gridstatusio"
gridsuite/gridstudy-app"
j-norwood-young/SA-Maps"
mhdhejazi/CoronaTracker"
power-grid-lib/pglib-uc"
powsybl/powsybl-diagram"
protocaller/ProtoCaller"
rtcovidlive/covid-model"
spine-tools/SpineOpt.jl"
stccenter/COVID-19-Data"
talha-akram/noctis.nvim"
tappat225/PV_prediction"
var-mar/circular_knitic"
wikihouseproject/Mallet"
wikihouseproject/StepUp"
xieyezi/2019-nCoV-Virus"
FoldingAtHome/containers"
FoldingAtHome/fah-issues"
GAMS-dev/gamspy-examples"
GMLC-TDC/HELICS-Examples"
HPparanhos/CITI-OpenLung"
KikiLetGo/VirusBroadcast"
PubInv/covid19-vent-list"
PyPSA/powerplantmatching"
Tooblippe/pandapower_gui"
USEPA/camd-eia-crosswalk"
ahmadawais/deno-beginner"
ahmadawais/hacktoberfest"
alsnhll/SEIR_COVID19_Dev"
cmu-delphi/epiforecast-R"
coronafighter/coronaSEIR"
dss-extensions/dss_sharp"
hilariouss/LSTM_VST_PVGF"
hyperknot/country-levels"
lanl-ansi/PowerModels.jl"
mobs-lab/mixing-patterns"
msaaddev/create-next-pwa"
phildini/stayinghomeclub"
power-grid-lib/pglib-opf"
powsybl/powsybl-open-rao"
scc-usc/ReCOVER-COVID-19"
soha-moosa/node-auth-kit"
tcapelle/cloud_diffusion"
wikihouseproject/Skylark"
wind-python/windpowerlib"
CDCgov/Rt-without-renewal"
CDCgov/ww-inference-model"
EpiModel/EpiModel-Gallery"
FoldingAtHome/coronavirus"
FoldingAtHome/fah-console"
FoldingAtHome/fah-control"
NREL-Sienna/PowerFlows.jl"
Placekey/awesome-placekey"
RSE-leaders/evidence-bank"
SafeGraphInc/safegraph_py"
Saim-Akhtar/Stalker-Insta"
ValentinRigoni/Open-DSOPF"
WikihouseUS/Alex-Wikished"
XunDong-Shi/photovoltaics"
brightwind-dev/brightwind"
calliope-project/calliope"
catalyst-cooperative/pudl"
cdcepi/FluSight-forecasts"
cmu-delphi/delphi-epidata"
descarteslabs/DL-COVID-19"
dss-extensions/DSS-Python"
dss-extensions/dss_matlab"
epiforecasts/scoringutils"
msaaddev/docx-to-markdown"
msaaddev/geo-location-cli"
msaaddev/new-tailwind-app"
msaaddev/password-gen-cli"
openENTRANCE/openentrance"
osllogon/epf-transformers"
rlindskog/covid19-graphql"
rtcovidlive/rtlive-global"
spine-tools/Spine-Toolbox"
susantoj/PYPOWER-Dynamics"
turbinesFoam/turbinesFoam"
y1han/epidemic-simulation"
zwdnet/2019-nCov-SIRmodel"
AmboVent-1690-108/AmboVent"
BlankerL/DXY-COVID-19-Data"
GRIDAPPSD/Powergrid-Models"
HopkinsIDD/ncov_incubation"
NREL-Sienna/OldExamples.jl"
ahmadawais/create-node-cli"
akarlinsky/world_mortality"
canghailan/Wuhan-2019-nCoV"
ccodwg/CovidTimelineCanada"
centrefornetzero/pypsa-fes"
cosmicjs/simple-react-blog"
fneum/data-science-for-esm"
gmarcjasz/distributionalnn"
gmlc-dispatches/dispatches"
grid-parity-exchange/Egret"
hydro-python/hydropowerlib"
joachim-gassen/tidycovid19"
jsnuwjl/Photovoltaic_power"
msaaddev/stackoverflow-cli"
msaaddev/who-unfollowed-me"
neherlab/covid19_scenarios"
space10-community/bee-home"
wuhan2020/shimo-sheet2json"
zumbov2/votemapswitzerland"
CDCgov/cfa-epinow2-pipeline"
CDCgov/covid19-forecast-hub"
FloatingArrayDesign/MoorDyn"
FoldingCommunity/fah-viewer"
Jasminapg/Covid-19-Analysis"
MHKiT-Software/MHKiT-MATLAB"
MHKiT-Software/MHKiT-Python"
NREL-Sienna/PowerSystems.jl"
NREL/REopt-Analysis-Scripts"
OpenGridMap/transnet-models"
OxCGRT/covid-policy-dataset"
OxCGRT/covid-policy-tracker"
Placekey/placekey-notebooks"
ahmadawais/Emoji-Log-VSCode"
beoutbreakprepared/nCoV2019"
ccodwg/Covid19CanadaArchive"
epri-dev/DER-VET-deprecated"
jianxu305/nCov2019_analysis"
joachim-gassen/tidy_covid19"
lispc/covid19-citymap-china"
matteodefelice/pypsa-entsoe"
mkhraijah/PowerModelsADA.jl"
nhs-r-community/FunnelPlotR"
popsolutions/openventilator"
saadpasta/react-blog-github"
wikihouseproject/Microhouse"
ANL-CEEESA/UnitCommitment.jl"
AceBBang/PV-forecasting-data"
FoldingAtHome/covid-moonshot"
FoldingAtHome/fah-web-client"
JuliaEnergy/PowerDynamics.jl"
Maples7/PowerFlowCalculation"
MomentEI/GridPath_RA_Toolkit"
NREL-Sienna/PowerGraphics.jl"
NREL/openfast-turbine-models"
WEC-Sim/WEC-Sim_Applications"
YouGov-Data/covid-19-tracker"
aboutmydreams/2019-nCoV-data"
cdcepi/FluSight-forecast-hub"
covidatlas/coronadatascraper"
cran-task-views/Epidemiology"
dss-extensions/AltDSS-Python"
ermtl/Open-Source-Ventilator"
jonnor/idda-knitting-machine"
markub3327/Solar-Transformer"
matteobonanomi/dsnd-capstone"
mlubin/RobustCCOPFSupplement"
msaaddev/github-interact-cli"
reichlab/variant-nowcast-hub"
sei-international/NemoMod.jl"
shfshanyue/you-dont-need-vps"
snap-stanford/covid-mobility"
youyanggu/yyg-seir-simulator"
BDI-pathogens/OpenABM-Covid19"
BlankerL/DXY-COVID-19-Crawler"
DemandRegioTeam/disaggregator"
FoldingAtHome/fah-screensaver"
IEAWindSystems/IEA-15-240-RWT"
IEAWindSystems/IEA-22-280-RWT"
OpenEnergyPlatform/oeplatform"
OpenEnergyPlatform/open-MaStR"
ahmadawais/VSCode-Tips-Tricks"
anderson-optimization/em-psse"
cdcepi/Flusight-forecast-data"
disease-sh/awesome-novelcovid"
eAzure/Code-For-COVID-19-Data"
ekapope/EPEX-machine-learning"
energyPATHWAYS/EnergyPATHWAYS"
power-grid-lib/pglib-opf-hvdc"
powsybl/powsybl-open-loadflow"
pypsa-meets-earth/pypsa-earth"
reichlab/covid19-forecast-hub"
renewables-ninja/demand-ninja"
shaman-lab/COVID-19Projection"
textiles-lab/knitout-examples"
wikihouseproject/wikihouse.cc"
youyanggu/covid19_projections" 
AndyYue1893/COVID-19-SEIR-LSTM" 
CDCgov/cfa-viral-lineage-model" 
COVID19Tracking/covid-tracking" 
DataForScience/Epidemiology101" 
ImperialCollegeLondon/epidemia" 
OxCGRT/covid-policy-scratchpad" 
Rigellute/shades-of-purple.vim" 
WikihouseUS/Vermont-Microhouse" 
ahmadawais/WP-OOP-Settings-API" 
andrewthong/covid19tracker-api" 
calliope-project/euro-calliope" 
cosmicjs/appointment-scheduler" 
epiforecasts/covidregionaldata" 
grid-parity-exchange/Prescient" 
jakezj/hidden_geometry_of_nCoV" 
jamesknelson/create-react-blog" 
mrc-ide/COVID19_CFR_submission" 
niclasmattsson/GlobalEnergyGIS" 
space10-community/the-growroom"!
COVID19Tracking/associated-data"!
DTUWindEnergy/Python4WindEnergy"!
DTUWindEnergy/WindEnergyToolbox"!
GeoDS/IntraCounty-Mobility-SEIR"!
IEAWindSystems/IEA-10.0-198-RWT"!
NREL-Sienna/PowerSimulations.jl"!
OSUKED/Power-Station-Dictionary"!
PowerGridModel/power-grid-model"!
SESAM-Polimi/MicroGridsPy-SESAM"!
SoftMatterGroupCambridge/pyross"!
TUDelft-DataDrivenControl/WFSim"!
ahmadawais/Node-CLI-Tips-Tricks"!
ahmadawais/awesome-random-stuff"!
benmaier/COVID19CaseNumberModel"!
dss-extensions/OpenDSSDirect.jl"!
dss-extensions/OpenDSSDirect.py"!
epiforecasts/covid-rt-estimates"!
makers-for-life/makair-firmware"!
mine-cetinkaya-rundel/covid19-r"!
msaaddev/git-commands-workflows"!
neherlab/covid19_scenarios_data"!
pablo-benito/SOWFA-installation"!
pypsa-meets-earth/documentation"!
sandeshbhatjr/energy-prediction"!
wri/global-power-plant-database""
 006Rain/DC_PV_Power_Predict_2018""
 COVID19Tracking/covid-19-crawler""
 COVID19Tracking/covid-public-api""
 CSSALTlab/Open_Source_Ventilator""
 CoronaNetDataScience/corona_tscs""
 ExpDev07/coronavirus-tracker-api""
 FoldingAtHome/fah-client-version""
 GraemeHawker/GBEnergyDataManager""
 HopkinsIDD/COVIDScenarioPipeline""
 JuliaDynamics/NetworkDynamics.jl""
 Mascobot/pandemic-ventilator-2.0""
 TheEconomist/graphic-detail-data""
 makers-for-life/makair-telemetry""
 mathdroid/indonesia-covid-19-api""
 nickrobinson251/PowerFlowData.jl""
 renewables-ninja/ninja_automator"#
!ActiveConclusion/COVID19_mobility"#
!Glacier-Ice/Covid-19-data-science"#
!Grv-Singh/Solar-Power-Forecasting"#
!Inspire-Poli-USP/Inspire-OpenLung"#
!JuliaEnergy/PowerDynamicsExamples"#
!RamiKrispin/coronavirus_dashboard"#
!Shaheer-Imam/Black-Jack-Card-Game"#
!ahmadawais/Shades-of-Purple-Hyper"#
!ahmadawais/Shades-of-Purple-Slack"#
!ahmadawais/gatsby-package-manager"#
!eastlong/competition_diantou_2018"#
!fronterapp/thesis-FloatingTurbine"#
!lukaslehner/covid19policytrackers"#
!makers-for-life/makair-control-ui"#
!pypsa-meets-earth/pypsa-earth-sec"#
!remarkablemark/react-blog-example"$
"COVID19Tracking/covid-tracking-api"$
"ChrisBrown46/SolarEnergyPrediction"$
"ImperialCollegeLondon/covid19model"$
"JacksonWuxs/19nCoV-SEIR-Estimation"$
"Open-Power-System-Data/time_series"$
"PowerGridModel/power-grid-model-ds"$
"PowerGridModel/power-grid-model-io"$
"Priesemann-Group/covid19_inference"$
"TUDelft-DataDrivenControl/FASTTool"$
"ahmadawais/Shades-of-Purple-iTerm2"$
"ahmadawais/shades-of-purple-vscode"$
"energy-modelling-toolkit/Dispa-SET"$
"pzivich/Python-for-Epidemiologists"%
#839Studio/Novel-Coronavirus-Updates"%
#COVID19StatePolicy/SocialDistancing"%
#COVID19Tracking/covid-tracking-dash"%
#COVID19Tracking/covid-tracking-data"%
#COVID19Tracking/covid19-datafetcher"%
#HelixNGC7293/Virus-Spread-Simulator"%
#InstituteforDiseaseModeling/covasim"%
#NREL-Sienna/PowerNetworkMatrices.jl"%
#Open-Power-System-Data/weather_data"%
#ahmadawais/wp-continuous-deployment"%
#lyupin/Visualize-DXY-2019-nCov-Data"%
#pastelsky/covid-19-mobility-tracker"%
#sagarkarira/coronavirus-tracker-cli"%
#sakshi-mishra/solar-forecasting-RNN"%
#soroushchehresa/awesome-coronavirus"&
$839-Studio/Novel-Coronavirus-Updates"&
$NREL-Sienna/HydroPowerSimulations.jl"&
$PingEnLu/Time-dependent_SIR_COVID-19"&
$Priesemann-Group/covid_bayesian_mcmc"&
$TUDelft-DataDrivenControl/FLORISSE_M"&
$Yu-Group/covid19-severity-prediction"&
$kazzastic/Tensorflow-BuildFromSource"&
$lanl-ansi/PowerModelsDistribution.jl"&
$sakshi-mishra/LSTM_Solar_Forecasting"'
%IEA-Task-43/digital_wra_data_standard"'
%Lkruitwagen/solar-pv-global-inventory"'
%TheEconomist/oecd_regional_inequality"'
%ahmadawais/github-stars-contributions"'
%kieshaprem/synthetic-contact-matrices"'
%yuhao-nie/Cloud-dection-in-sky-images"(
&839-Studio/Noval-Coronavirus-763-Cases"(
&DIY-Beatmungsgerat/diy-beatmungsgeraet"(
&FolkScientistInDL/pv_predict_unet-lstm"(
&GoogleCloudPlatform/covid-19-open-data"(
&Shaheer-Imam/Premier-League-Prediction"(
&VincentMuller/Pionierswoning-WikiHouse"(
&ahmadbilaldev/GitHub-Actions-WordPress"(
&singularity-energy/open-grid-emissions")
'CSSEGISandData/COVID-19_Unified-Dataset")
'Carterbouley/ElectricityPricePrediction")
'CynthiaKoopman/Forecasting-Solar-Energy")
'NREL-Sienna/PowerSimulationsDynamics.jl")
'YiranJing/Coronavirus-Epidemic-COVID-19")
'yyhhlancelot/DC_power_prediction_rank21"*
(FoldingAtHome/fah-client-osx-uninstaller"*
(PowerGridModel/power-grid-model-workshop"*
(jschiefner/photovoltaic-power-prediction"*
(pypsa-meets-earth/pypsa-africa-hackathon"+
)COVIDExposureIndices/COVIDExposureIndices"+
)globalcitizen/2019-wuhan-coronavirus-data"+
)mattkerlogue/google-covid-mobility-scrape"+
)saradindusengupta/Solar-Power-Forecasting"+
)shizizhixin/Photovoltaic-power-prediction"+
)youyanggu/covid19-forecast-hub-evaluation",
*ManeeshaPerera/solar-forecasting-framework",
*SafeGraphInc/awesome-safegraph-datascience"-
+Priesemann-Group/covid19_inference_forecast"-
+TheEconomist/covid-19-excess-deaths-tracker"-
+mddanishyusuf/gatsby-theme-blog-with-github"-
+tarunk04/COVID-19-CaseStudy-and-Predictions".
,AntoinePassemiers/Stochastic-Unit-Commitment".
,CDCgov/wastewater-informed-covid-forecasting".
,JieYingWu/COVID-19_US_County-level_Summaries".
,Octiembre80/DA-electricity-price-forecasting".
,yuhao-nie/Stanford-solar-forecasting-dataset"/
-Open-Power-System-Data/renewable_power_plants"/
-calliope-project/sector-coupled-euro-calliope"/
-energy-modelling-toolkit/hydro-power-database"/
-wanlida/2018_diantou_PhotovoltaicPowerStation"1
/USCOVIDpolicy/COVID-19-US-State-Policy-Database"1
/open-energy-transition/grid-mapping-starter-kit"2
0Open-Power-System-Data/conventional_power_plants"2
0anantgupta129/Solar-Power-Generation-Forecasting"3
1Financial-Times/coronavirus-excess-mortality-data"3
1ShashwatArghode/Wind-Energy-Prediction-using-LSTM"4
2TSummersLab/Distributionally-robust-stochastic-OPF"5
3Open-Power-System-Data/national_generation_capacity"5
3midas-network/covid19-scenario-modeling-hub_archive"6
4Avens666/COVID-19-2019-nCoV-Infection-Data-cleaning-"6
4Electa-Git/PowerModelsDistributionStateEstimation.jl"8
6ColasGael/Machine-Learning-for-Solar-Energy-Prediction"9
7spratapa/Time-Series-LSTM-based-Solar-Energy-Prediciton";
9adele-k02/CS229-machine-learning-solar-energy-predictions"<
:aparajitad60/Stacked-LSTM-for-Covid-19-Outbreak-Prediction">
<Power-Systems-Optimization-Course/power-systems-optimization"?
=Minghou-Lei/COVID-19-historical-data-visualization-2019-nCoV-"@
>TheEconomist/covid-19-the-economist-global-excess-deaths-model"G
EBob05757/Renewable-energy-generation-input-feature-variables-analysis"S
Qpiekarsky/Short-Term-Electricity-Price-Forecasting-at-the-Polish-Day-Ahead-Market"   @"  `@"  ░@"  ╟@"  п@"	333333@"	333333@"	333333@"	333333@"	333333@"	333333@"	333333@"	333333@"	333333@"	333333"@"	ffffff@"	ffffff@"	ffffff
@"	ffffff@"	ffffff@"	ffffff@"	ffffff@"	ffffff@"	ffffff@"	ffffff@"	ffffff@"	ffffffЧ?"	 ≥≥≥≥≥@"	 ≥≥≥≥≥@"	 ≥≥≥≥≥	@"	 ≥≥≥≥≥@"	 ≥≥≥≥≥@"	 ≥≥≥≥≥@"	 ≥≥≥≥≥@"	 ≥≥≥≥≥@"	 ≥≥≥≥≥@"	 ≥≥≥≥≥@"	мллллл @"	мллллл@"	мллллл@"	мллллл@"	мллллл@"	мллллл@"	мллллл@"	мллллл@"	мллллл@"	мллллл@"	млллллЭ?" " " " " " ┼" ╦" р	 ▓оЙ"	⌠ф $ЦЙ"	┬	 ╩пЙ"	н	 ╥ЕЙ"	█√	 ЯыЙ"	█└	 ╨ыЙ"	%┌ _╣Й"	л pДЙ"	'╡ tзЙ"	└	 ипЙ"	k└	 ОдЙ"	e─  oпЙ"	%ч	 ≥╢Й"	Y╤  \дЙ"	WБ 	 ╬╨Й"	1б 	 ©шЙ"	Й 	 неЙ"	=╢! еЙ"	√! FцЙ"	]─" eЕЙ"	╡"	 ЮцЙ"	■#	 ²ДЙ"	┐Ж$	 ▄╧Й"	╤%	 ■цЙ"	┐╤&	 ╙ФЙ"	≈Т'	 бДЙ"	╗&	 и╢Й"	1Н&	 ФзЙ"	w╓' [цЙ"	Mф'	 ▒оЙ"	Х'	 ┤ДЙ"	█▄) ╨Й"	qч(	 ╞ЕЙ"	Mл(	 ┼эЙ"	1╓(	 ╜╫Й"	°(	 ⌠╨Й"	л( 8дЙ"	З( wзЙ"	c░) шЙ"	yБ)	 Е╢Й"	MФ) яЙ"	9╛)	 ■еЙ"	╛)	 ─ЕЙ"	²■*	 л╧Й"	█й*	 уыЙ"	]▄*	 ТпЙ"	kЗ*	 ▓щЙ"	└*	 ╧ХЙ"	9п* 
еЙ"	yп+  сЙ"	+═+	 ш╢Й"	▀√,	 кцЙ"	⌠й, @пЙ"	≈Э- ЕЙ"	W┬, aыЙ"	■, ZпЙ"	Р,	 ═╫Й"	e└- ;яЙ"	9Й-	 ╫╢Й"	E╦. )цЙ"	%Д.	 ьоЙ"	─ (цЙ"	n▓	 │нЙ"	Zч MпЙ"	ьр ,цЙ"	>ф пЙ"	·	 └шЙ"	л ?яЙ"	8Н	 йэЙ"	F└ g╧Й"	·°	 ▌╧Й"	 ч .нЙ"	─р зЙ"	>Ф ╢Й"	`╗	  еЙ"	≤	 ╙╧Й"	>╟  ╢Й"	d≤	 ├╩Й"	▄з q╩Й"	Ю═ uнИ"	─√	 ноИ"	╝й	 ╚ыИ"	╕└ bгИ"	Р╟	 ╢эИ"	╦▌ jЕИ"	▓Х	 кдИ"	Чй	 ╔фИ"	Й╝	 гщИ"	ПФ	 У╢И"	■й	 ╧╤И"	Д·	 ╠хИ"	дж	 ╓эИ"	ф╪ KнИ"	√─	 рдИ"	▄п	 ёгИ"	▄т	 ┼ыИ"	Ьж	 ИыИ"	з╡	 ышИ"	╡З	 ╡яИ"	ЖД	 °ыИ"	Ф√	 сзИ"	·▓	 ╢ЕИ"	√э	 ЖоИ"	й▌	 ╔цИ"	┌Х	 ▀╢И"	Л├	 доИ"	дп	 ≈цИ"	╪╤	 ╥рИ"	Пд	 М╫И"	▓д kЦИ"	ХЬ	 ЫДИ"	Ж· #╢И"	ДХ	 ёцИ"	╡Ю TДИ"	ХЮ	 щоИ"	└╒ }нИ"	▌╢	 ╒ыИ"	╪╝	 ЬДИ"	▓э	 ∙цИ"	≤р	 ПеИ"	Д╙	 ▌╧И"	╙Й	 ▒пИ"	Д┼	 ▄оИ"	└д	 ЕДИ"	б╦	 ЫоИ"	Пэ	 ЗоИ"	╢╨ 7ДИ"	эД	 ≤зИ"	 ├	 ╣ЦИ"	╝╦	 ┐ЦИ"	т▓	 ▐пИ"	└╪	 аоИ"	╢ь	 ▀©Й"	■ 	 в╧Й"	З 	 НФЙ"	"н  ╣Й"	T┌  -╣Й"	&╒! дЙ"	р!	 ╛цЙ"	T┌! ╪Й"	Xй!	 ж╢Й"	 ╝ 	 гдЙ"	├Ж 	 НДЙ"	╓╨!	 ╜оЙ"	╓Н! ╢Й"	н░!	 ÷╧Й"	нй! 	╧Й"	>╦" пЙ"	n╢" фЙ"	>╛#	 ┤пЙ"	tй#	 БЦЙ"	фР"	 СдЙ"	├┼# CыЙ"	╗═# XзЙ"	╝Л# ЦЙ"	Ю■# WдЙ"	Т╬#	 ╟ДЙ"	▄ж"	 чнЙ"	╢ #	 эЕЙ"	>╓$	 ├╢Й"	б$	 ≈цЙ"	`з$	 √╨Й"	.▓%	 ═нЙ"	─┼$ 'ЦЙ"	▓Ч$ GнЙ"	&■&	 ЩзЙ"	Б&	 ┼ЦЙ"	L▄&	 П╨Й"	h╪&	 лоЙ"	FН&	 Ь╫Й"	╝'	 уыЙ"	Й'	 ·дЙ"	F╟' hдЙ"	t▌'	 ┼╨Й"	Fч'	 ╛нЙ"	╡╗&	 ╗пЙ"	╝Х&	 ╫цЙ"	Юф&	 З╢Й"	ЮТ& iеЙ"	╡╒' яЙ"	├ф'	 ╗ЕЙ"	Ю╒'	  ╩Й"	фэ'	 ╚оЙ"	Ьр'	 ю╧Й"	╦з%	 аыЙ"	з┌%	 ╕оЙ"	Тн%	 ╣ДЙ"	╡─&	 ┤ЕЙ"	├═& +╧Й"	╨х&	 КцЙ"	л▌&	 ┬эЙ"	▓┌' nзЙ"	·╨'	 ║ЦЙ"	н≤'	 █дЙ"	лж'	 ╫пЙ"	 т&	 ⌡цЙ"	ф╗&	 ²оЙ"	▓╓'	 ЯшЙ"	р≤'	 ╘╨Й"	Юр'	 ╛╧Й"	╟╙%	 БоЙ"	▄х%	 ЁпЙ"	з·%	 ╘ыЙ"	лт%	  оЙ"	ДЭ%	 ┌дЙ"	≤╦%	 ∙╢Й"	≤Э%	 ╣╪Й"	≤ &	 ЛцЙ"	╙Т&	 ╖ЦЙ"	═╟' ыЙ"	═Н'	 ╕╧Й"	р╢'	 В╧Й"	─╝&	 р╩Й"	╡ж'	 ЦдЙ"	Ж╟'	 ╛ДЙ"	д╦$	 ╜дЙ"	Ь╛$	 ╚гЙ"	ДЧ$	 ╖ыЙ"	≤╝'	 °дЙ"	─Б'	 ╒пЙ"	╛л'	 ЦрЙ"	>░( !гЙ"	.╬(	 ┬щЙ"	>Л(	 ·╫Й"	`└(	 ШФЙ"	d╢( %рЙ"	~Л( ^ЕЙ"	└)	 ЛяЙ"	Ф)	 афЙ"	(ю)	 ┴чЙ"	L╡)	 в╩Й"	NН)	 цгЙ"	lЮ) "рЙ"	▓└(	 хшЙ"	■╢( ]╤Й"	╗Ь(	 ТеЙ"	т╒( 6ыЙ"	Нь( шЙ"	▓Ч) АЙ"	Ю╬) пЙ"	╛* vдЙ"	&■* >ФЙ"	ж*	 ╞рЙ"	l╬*	 ╟╢Й"	dЬ*	 ЬзЙ"	>°+	 йзЙ"	п+ sэЙ"	╦Б*	 ╞╨Й"	т└*	 ╪╫Й"	Нп*	 ║зЙ"	▓╦+	  гЙ"	ф┬+	 оеЙ"	Ч╬+	 ╚╩Й"	ьн+	 ©чЙ"	═▄(	 ыЕЙ"	╨ь(	 ╬ыЙ"	╡╢)	 ФДЙ"	П≤) O╢Й"	╨─( 2╢Й"	Пф(	 ╕дЙ"	■Ф)	 ≈эЙ"	л─) dеЙ"	ьН)	 Н╤Й"	╕Б*	 ≤йЙ"	н■*	 ┴чЙ"	зР*	 Р╫Й"	╡°+	 сяЙ"	═ж+	 └рЙ"	зд+ =хЙ"	─╦* сЙ"	╟н*	 ≥дЙ"	з╡* ФЙ"	╙┼+	 Я╣Й"	┼Ф+	 ╦рЙ"	з■+	 Э╩Й"	2═, *зЙ"	 д-	 пдЙ"	B√-	 еыЙ"	FЧ- нЙ"	┬■,	 ▐╧Й"	л╬,	 пшЙ"	Ь┬,	 ≈╧Й"	НЭ,	 тдЙ"	╗√-	 ≤ЕЙ"	╗Ч-	 ╙нЙ"	ь═-	 бнЙ"	╝╤,	 ЫыЙ"	 Й,	 БоЙ"	Д╦,	 ╥╩Й"	╕б-	 ╕ЕЙ"	Ю·-	 ж╧Й"	▓╛,	 ЪоЙ"	─э, `дЙ"	Ю└,	 ╙╢Й"	фд,	 √пЙ"	ТД,	 КЦЙ"	■╓-	 └дЙ"	╬└-	 ецЙ"	Д╙-	 Ц╧Й"	Ь■. P╢Й"	─░( cнЙ"	·Н(	 ╨зЙ"	рч(	 ДпЙ"	┼й)	 ░ыЙ"	Ь╡)	 иыЙ"	дл)	 ─цЙ"	─■*	 т╨Й"	р *	 °эЙ"	фЮ*	 фдЙ"	▓Ь+	 ╓шЙ"	Л═+	 яэЙ"	дн+	 ёцЙ"	ьЧ+ UеЙ"	Пз+	 снЙ"	√╛*	 тДЙ"	╙ж*	 ┬ыЙ"	д╢* yдЙ"	·■+	 █дЙ"	╙н+	 х╧Й"	╙Э+ ╨Й"	Л╕+	 дзЙ"	ЮБ+	 ▌ЦЙ"	└Э+ rыЙ"	ф√+	 ÷╢Й"	░╬+	 ╚ыЙ"	Ьп+ еЙ"	ьб,	 йцЙ"	─Р- zоЙ"	┼═,	 ЪЕЙ"	─Ч, зЙ"	═п, Y╩Й"	п╤,	 чнЙ"	▄╒,	 ъоЙ"	═Р,	 КЦЙ"	р■,	 ╖ыЙ"	≤п- 0ЕЙ"	┼н.	 ▄шЙ"	╕ф/	 ┴╢Й"	д▌/	 ┐ЦЙ"	чф/	 УнЙ"	·┌.	 хоЙ"	ж	≤! 9зЙ"	ч	Б!	 ооЙ"	·Ч#	 ┴зЙ"	Х╡#	 ▐цЙ"	╙	ю"	 ├ЕЙ"	Х	╛"	 Р╢Й"	╬	з#	 ├зЙ"	ж
р 	 ╝ДЙ"	╒
░!	 ╝ыЙ"	░
Б!	 ÷дЙ"	╙
░"	 взЙ"	х
ю"	 ╦оЙ"	≤й$	 юоЙ"	╗Р$	 ┐зЙ"	й╦$	 ё╨Й"	рЧ$	 ╔шЙ"	░р%	 Х╢Й"	┼	└$	 ▌ЦЙ"	▌	╬$	 пДЙ"	П	Ф$	 Ш╧Й"	░	╪%	 Л╢Й"	Н	═%	 ┐цЙ"	й	Т%	 чнЙ"	╝
╙$	 ⌡╣Й"	╤
П$	 ЬнЙ"	э
═$	 ▒нЙ"	Д
д$	 ║нЙ"	Э
Ч$	 ▐нЙ"	ч
╛%	 └╧Й"	░н$	 ЁЕЙ"	╢Э$	 АоЙ"	Эй$	 РЦЙ"	ТЭ$	 ╡╨Й"	√